                                   MODFLOW 6
                U.S. GEOLOGICAL SURVEY MODULAR HYDROLOGIC MODEL
                          GROUNDWATER FLOW MODEL (GWF)
                            VERSION 6.4.4 02/13/2024

   MODFLOW 6 compiled Feb 13 2024 15:40:13 with Intel(R) Fortran Intel(R) 64
   Compiler Classic for applications running on Intel(R) 64, Version 2021.7.0
                             Build 20220726_000000

This software has been approved for release by the U.S. Geological 
Survey (USGS). Although the software has been subjected to rigorous 
review, the USGS reserves the right to update the software as needed 
pursuant to further analysis and review. No warranty, expressed or 
implied, is made by the USGS or the U.S. Government as to the 
functionality of the software and related material nor shall the 
fact of release constitute any such warranty. Furthermore, the 
software is released on condition that neither the USGS nor the U.S. 
Government shall be held liable for any damages resulting from its 
authorized or unauthorized use. Also refer to the USGS Water 
Resources Software User Rights Notice for complete use, copyright, 
and distribution information.


As a work of the United States Government, this USGS product is 
in the public domain within the United States. You can copy, 
modify, distribute, and perform the work, even for commercial 
purposes, all without asking permission. Additionally, USGS 
waives copyright and related rights in the work worldwide 
through CC0 1.0 Universal Public Domain Dedication 
(https://creativecommons.org/publicdomain/zero/1.0/).

The following GNU Lesser General Public License (LGPL) libraries
are used in this USGS product:

    SPARSKIT version 2.0
      ilut, luson, and qsplit 
      (https://www-users.cse.umn.edu/~saad/software/SPARSKIT/)

    RCM - Reverse Cuthill McKee Ordering
      (https://people.math.sc.edu/Burkardt/f_src/rcm/rcm.html)

    BLAS - Basic Linear Algebra Subprograms Level 1
      (https://people.math.sc.edu/Burkardt/f_src/blas1_d/blas1_d.html)

    SPARSEKIT - Sparse Matrix Utility Package
      amux, dperm, dvperm, rperm, and cperm
      (https://people.sc.fsu.edu/~jburkardt/f77_src/sparsekit/sparsekit.html)

The following BSD-3 License libraries are used in this USGS product:

    Modern Fortran DAG Library
      Copyright (c) 2018, Jacob Williams
      All rights reserved.
      (https://github.com/jacobwilliams/daglib)

MODFLOW 6 compiler options: /Isrc\libmf6core.a.p /Isrc /I..\src
/Isrc\libmf6_external.a.p /MTd /nologo /warn:general /warn:truncated_source
/stand:f08 /Zi /traceback /O2 /fpe:0 /heap-arrays:0 /traceback /fpp
/Qdiag-disable:7416 /Qdiag-disable:7025 /Qdiag-disable:5268
/Fdsrc\libmf6core.a.p\Utilities_compilerversion.F90.pdb
/module:src\libmf6core.a.p
/Fosrc/libmf6core.a.p/Utilities_compilerversion.F90.obj /c

System command used to initiate simulation:
"F:\新建文件夹\给韩尚麒\衡水模型\地面沉降可变渗透系数小论文\ENVIRONMENTAL MODELLING & SOFTWARE投稿\变K值论文模型\变K值论文模型\Case study\算例1\CSUB-算例1\mf6.exe"

MODFLOW was compiled using uniform precision.

Real Variables
  KIND: 8
  TINY (smallest non-zero value):    2.225074-308
  HUGE (largest value):    1.797693+308
  PRECISION: 15
  SIZE IN BITS: 64

Integer Variables
  KIND: 4
  HUGE (largest value): 2147483647
  SIZE IN BITS: 32

Long Integer Variables
  KIND: 8
  HUGE (largest value): 9223372036854775807
  SIZE IN BITS: 64

Logical Variables
  KIND: 4
  SIZE IN BITS: 32
 
 NAMEFILE OPTIONS:
    FLOWS WILL BE SAVED TO BUDGET FILE SPECIFIED IN OUTPUT CONTROL
 END NAMEFILE OPTIONS:

 DIS -- STRUCTURED GRID DISCRETIZATION PACKAGE, VERSION 2 : 3/27/2014 - INPUT READ FROM MEMPATH: __INPUT__/CASE1/DIS                               


 NPF -- NODE PROPERTY FLOW PACKAGE, VERSION 1, 3/30/2015 INPUT READ FROM MEMPATH: __INPUT__/CASE1/NPF                               


 IC -- Initial Conditions Package, Version 8, 3/28/2015 input read from mempath: __INPUT__/CASE1/IC                                


 Setting Discretization Options
    Model length unit [0=UND, 1=FEET, 2=METERS, 3=CENTIMETERS] set as 2
 End Setting Discretization Options

 Setting Discretization Dimensions
    NLAY = 1
    NROW = 1
    NCOL = 3
 End Setting Discretization Dimensions

 Setting Discretization Griddata
    DELR set from input file
    DELC set from input file
    TOP set from input file
    BOTM set from input file
 End Setting Discretization Griddata

 Setting NPF Options
    Specific discharge will be calculated at cell centers and written to DATA-SPDIS in budget file when requested.
 End Setting NPF Options

 Setting NPF Griddata
    ICELLTYPE set from input file
    K set from input file
    K33 not provided.  Setting K33 = K.
    K22 not provided.  Setting K22 = K.
 End Setting NPF Griddata


 CHD   -- CHD PACKAGE, VERSION 8, 2/22/2014 INPUT READ FROM MEMPATH: __INPUT__/CASE1/CHD_0                             

 PROCESSING CHD BASE OPTIONS
 END OF CHD BASE OPTIONS

 PROCESSING CHD BASE DIMENSIONS
    MAXBOUND =       2
 END OF CHD BASE DIMENSIONS
    STRT set from input file

 STO -- STORAGE PACKAGE, VERSION 1, 5/19/2014 INPUT READ FROM UNIT 1005


 # File generated by Flopy version 3.6.0.dev0 on 02/07/2024 at 20:14:53.
 PROCESSING STORAGE OPTIONS
 END OF STORAGE OPTIONS
 PROCESSING GRIDDATA

                 ICONVERT = 0

         SPECIFIC STORAGE =   0.000000    

           SPECIFIC YIELD =   0.000000    
 END PROCESSING GRIDDATA

 CSUB -- COMPACTION PACKAGE, VERSION 1, 12/15/2019 INPUT READ FROM UNIT 1010


 # File generated by Flopy version 3.6.0.dev0 on 02/07/2024 at 20:14:53.
 PROCESSING CSUB OPTIONS
    CSUB BOUNDARIES HAVE NAMES IN LAST COLUMN.
    LISTS OF CSUB CELLS WILL BE PRINTED.
    FLOWS WILL BE SAVED TO BUDGET FILE SPECIFIED IN OUTPUT CONTROL

 OPENED case1.csub.obs
 FILE TYPE:OBS   UNIT 1014   STATUS:OLD                 
 FORMAT:FORMATTED              ACCESS:SEQUENTIAL          
 ACTION:READ                

 END OF CSUB OPTIONS


 CSUB PACKAGE SETTINGS
    NUMBER OF DELAY CELLS = 19
    EFFECTIVE-STRESS FORMULATION
    ELASTIC AND INELASTIC SPECIFIC STORAGE COEFFICIENTS WILL BE 
      SPECIFIED
    THICKNESS AND VOID RATIO WILL BE ADJUSTED DURING THE SIMULATION
    INTERBED THICKNESS WILL BE SPECIFIED AS A THICKNESS
    PRECONSOLIDATION STRESS WILL BE SPECIFIED RELATIVE TO INITIAL
      STRESS CONDITIONS
    DELAY INTERBED HEADS WILL BE SPECIFIED RELATIVE TO INITIAL 
      GWF HEADS
    SPECIFIC STORAGE VALUES WILL BE CALCULATED USING THE CURRENT
      EFFECTIVE STRESS
    GAMMAW        = 9806.650000000000
    BETA          = .000000000000000
    GAMMAW * BETA = .000000000000000

 PROCESSING CSUB DIMENSIONS
    NINTERBEDS = 1
 END OF CSUB DIMENSIONS

The observation utility is active for "CSUB"
 # File generated by Flopy version 3.6.0.dev0 on 02/07/2024 at 20:14:53.

Processing observation options:

Text output number of digits of precision set to: 10
The PRINT_INPUT option has been specified.


 OBSERVATIONS READ FROM FILE "case1.csub.obs"
 ----------------------------------------------------------------------------------------------------------------------------------------------------------------------------------------------------------------------------
 NAME                                     TYPE                                       TIME         LOCATION DATA                              OUTPUT FILENAME                                                                 
 ----------------------------------------------------------------------------------------------------------------------------------------------------------------------------------------------------------------------------
 TCOMP                                    CONTINUOUS  INTERBED-COMPACTION            ALL TIMES    "  ib1"                                    case1.csub.obs.csv                                                              
 SK                                       CONTINUOUS  SK                             ALL TIMES    "  ib1"                                    case1.csub.obs.csv                                                              
 QTOP                                     CONTINUOUS  DELAY-FLOWTOP                  ALL TIMES    "  1"                                      case1.csub.obs.csv                                                              
 QBOT                                     CONTINUOUS  DELAY-FLOWBOT                  ALL TIMES    "  1"                                      case1.csub.obs.csv                                                              
 H0001                                    CONTINUOUS  DELAY-HEAD                     ALL TIMES    "  1  1"                                   case1.csub.obs.csv                                                              
 H0002                                    CONTINUOUS  DELAY-HEAD                     ALL TIMES    "  1  2"                                   case1.csub.obs.csv                                                              
 H0003                                    CONTINUOUS  DELAY-HEAD                     ALL TIMES    "  1  3"                                   case1.csub.obs.csv                                                              
 H0004                                    CONTINUOUS  DELAY-HEAD                     ALL TIMES    "  1  4"                                   case1.csub.obs.csv                                                              
 H0005                                    CONTINUOUS  DELAY-HEAD                     ALL TIMES    "  1  5"                                   case1.csub.obs.csv                                                              
 H0006                                    CONTINUOUS  DELAY-HEAD                     ALL TIMES    "  1  6"                                   case1.csub.obs.csv                                                              
 H0007                                    CONTINUOUS  DELAY-HEAD                     ALL TIMES    "  1  7"                                   case1.csub.obs.csv                                                              
 H0008                                    CONTINUOUS  DELAY-HEAD                     ALL TIMES    "  1  8"                                   case1.csub.obs.csv                                                              
 H0009                                    CONTINUOUS  DELAY-HEAD                     ALL TIMES    "  1  9"                                   case1.csub.obs.csv                                                              
 H0010                                    CONTINUOUS  DELAY-HEAD                     ALL TIMES    "  1  10"                                  case1.csub.obs.csv                                                              
 H0011                                    CONTINUOUS  DELAY-HEAD                     ALL TIMES    "  1  11"                                  case1.csub.obs.csv                                                              
 H0012                                    CONTINUOUS  DELAY-HEAD                     ALL TIMES    "  1  12"                                  case1.csub.obs.csv                                                              
 H0013                                    CONTINUOUS  DELAY-HEAD                     ALL TIMES    "  1  13"                                  case1.csub.obs.csv                                                              
 H0014                                    CONTINUOUS  DELAY-HEAD                     ALL TIMES    "  1  14"                                  case1.csub.obs.csv                                                              
 H0015                                    CONTINUOUS  DELAY-HEAD                     ALL TIMES    "  1  15"                                  case1.csub.obs.csv                                                              
 H0016                                    CONTINUOUS  DELAY-HEAD                     ALL TIMES    "  1  16"                                  case1.csub.obs.csv                                                              
 H0017                                    CONTINUOUS  DELAY-HEAD                     ALL TIMES    "  1  17"                                  case1.csub.obs.csv                                                              
 H0018                                    CONTINUOUS  DELAY-HEAD                     ALL TIMES    "  1  18"                                  case1.csub.obs.csv                                                              
 H0019                                    CONTINUOUS  DELAY-HEAD                     ALL TIMES    "  1  19"                                  case1.csub.obs.csv                                                              
 EST                                      CONTINUOUS  DELAY-ESTRESS                  ALL TIMES    "  1  1"                                   case1.csub.obs.csv                                                              
 ESB                                      CONTINUOUS  DELAY-ESTRESS                  ALL TIMES    "  1  19"                                  case1.csub.obs.csv                                                              
 PST                                      CONTINUOUS  DELAY-PRECONSTRESS             ALL TIMES    "  1 1"                                    case1.csub.obs.csv                                                              
 PSB                                      CONTINUOUS  DELAY-PRECONSTRESS             ALL TIMES    "  1 19"                                   case1.csub.obs.csv                                                              
 GS                                       CONTINUOUS  GSTRESS-CELL                   ALL TIMES    "  1 1 2"                                  case1.csub.obs.csv                                                              
 ES                                       CONTINUOUS  ESTRESS-CELL                   ALL TIMES    "  1 1 2"                                  case1.csub.obs.csv                                                              
 ----------------------------------------------------------------------------------------------------------------------------------------------------------------------------------------------------------------------------



 CG_SKE_CR =   0.000000    

 CG_THETA =  0.2000000    

 SGM =   1.700000    

 SGS =   2.000000    

 PROCESSING CSUB PACKAGEDATA
 END OF CSUB PACKAGEDATA

 CSUB PACKAGE INTERBED DATA
 ---------------------------------------------------------------------------------------------------------------------------------------------------------------------------
 INTERBED          CELLID          CDELAY      PCS       THICK       RNB       SSV_CC     SSV_CR     THETA        KV         H0     BOUNDNAME                               
 ---------------------------------------------------------------------------------------------------------------------------------------------------------------------------
 1                (1,1,2)          DELAY    -1.00       1.00       1.00       1.000E-02  1.000E-05  0.450      2.500E-06  1.00      IB1                                     
 ---------------------------------------------------------------------------------------------------------------------------------------------------------------------------



The observation utility is active for "CASE1"
 # File generated by Flopy version 3.6.0.dev0 on 02/07/2024 at 20:14:53.

Processing observation options:

Text output number of digits of precision set to: 10
The PRINT_INPUT option has been specified.


 OBSERVATIONS READ FROM FILE "case1.obs"
 ----------------------------------------------------------------------------------------------------------------------------------------------------------------------------------------------------------------------------
 NAME                                     TYPE                                       TIME         LOCATION DATA                              OUTPUT FILENAME                                                                 
 ----------------------------------------------------------------------------------------------------------------------------------------------------------------------------------------------------------------------------
 H1_1_2                                   CONTINUOUS  HEAD                           ALL TIMES    "  1 1 2"                                  case1_obs.csv                                                                   
 ----------------------------------------------------------------------------------------------------------------------------------------------------------------------------------------------------------------------------


    BINARY GRID INFORMATION WILL BE WRITTEN TO:
      UNIT NUMBER: 1017
      FILE NAME: case1.dis.grb

 OPENED case1.dis.grb
 FILE TYPE:DATA(BINARY)   UNIT 1017   STATUS:REPLACE             
 FORMAT:UNFORMATTED            ACCESS:STREAM              
 ACTION:READWRITE           

      THE LAST TIME STEP WILL BE PRINTED
      THE LAST TIME STEP WILL BE PRINTED
 # File generated by Flopy version 3.6.0.dev0 on 02/07/2024 at 20:14:53.

 PROCESSING OC OPTIONS

 END OF OC OPTIONS

start timestep kper="1" kstp="1" mode="normal"


 BEGIN READING OUTPUT CONTROL FOR STRESS PERIOD 1
      ALL TIME STEPS WILL BE PRINTED

 END READING OUTPUT CONTROL FOR STRESS PERIOD 1


 PROCESSING STORAGE PERIOD DATA
 END PROCESSING STORAGE PERIOD DATA


 STRESS PERIOD 1 IS TRANSIENT


 REUSING CSUBS FROM LAST STRESS PERIOD

 CSUB PACKAGE CALCULATED INITIAL INTERBED STRESSES AT THE CELL BOTTOM
 ---------------------------------------------------------------------------------------------------------------------------
 INTERBED                                                          PRECONSOLIDATION                                         
 NUMBER            CELLID        GEOSTATIC STRESS EFFECTIVE STRESS      STRESS      BOUNDNAME                               
 ---------------------------------------------------------------------------------------------------------------------------
 1                (1,1,2)         2000.00000       1000.00000       999.000000      IB1                                     
 ---------------------------------------------------------------------------------------------------------------------------



 CSUB PACKAGE CALCULATED INITIAL DELAY INTERBED STRESSES
 --------------------------------------------------------------------------------------------------------------------------------------
 INTERBED                                                                     PRECONSOLIDATION                                         
 NUMBER            CELLID        DELAY CELL GEOSTATIC STRESS EFFECTIVE STRESS      STRESS      BOUNDNAME                               
 --------------------------------------------------------------------------------------------------------------------------------------
 1                (1,1,2)        1           1998.10526       998.052632       998.052632      IB1                                     
                                 2           1998.21053       998.105263       998.105263                                              
                                 3           1998.31579       998.157895       998.157895                                              
                                 4           1998.42105       998.210526       998.210526                                              
                                 5           1998.52632       998.263158       998.263158                                              
                                 6           1998.63158       998.315789       998.315789                                              
                                 7           1998.73684       998.368421       998.368421                                              
                                 8           1998.84211       998.421053       998.421053                                              
                                 9           1998.94737       998.473684       998.473684                                              
                                 10          1999.05263       998.526316       998.526316                                              
                                 11          1999.15789       998.578947       998.578947                                              
                                 12          1999.26316       998.631579       998.631579                                              
                                 13          1999.36842       998.684211       998.684211                                              
                                 14          1999.47368       998.736842       998.736842                                              
                                 15          1999.57895       998.789474       998.789474                                              
                                 16          1999.68421       998.842105       998.842105                                              
                                 17          1999.78947       998.894737       998.894737                                              
                                 18          1999.89474       998.947368       998.947368                                              
                                 19          2000.00000       999.000000       999.000000                                              
 --------------------------------------------------------------------------------------------------------------------------------------



 CSUB PACKAGE COMPRESSION INDICES
 ----------------------------------------------------------------------------------------------------------
 INTERBED                                                                                                  
 NUMBER            CELLID               CC               CR        BOUNDNAME                               
 ----------------------------------------------------------------------------------------------------------
 1                (1,1,2)         20.9326053       2.093260534E-02 IB1                                     
 ----------------------------------------------------------------------------------------------------------




  VOLUME BUDGET FOR ENTIRE MODEL AT END OF TIME STEP    1, STRESS PERIOD   1
  ---------------------------------------------------------------------------------------------------

     CUMULATIVE VOLUME      L**3       RATES FOR THIS TIME STEP      L**3/T          PACKAGE NAME    
     ------------------                 ------------------------                     ----------------

           IN:                                      IN:
           ---                                      ---
              STO-SS =           0.0000                STO-SS =           0.0000     STORAGE                          
      CSUB-CGELASTIC =           0.0000        CSUB-CGELASTIC =           0.0000     CSUB                             
        CSUB-ELASTIC =           0.0000          CSUB-ELASTIC =           0.0000     CSUB                             
      CSUB-INELASTIC =       6.8238E-05        CSUB-INELASTIC =       1.7810E-04     CSUB                             
      CSUB-WATERCOMP =           0.0000        CSUB-WATERCOMP =           0.0000     CSUB                             
                 CHD =           0.0000                   CHD =           0.0000     CHD_0                            

            TOTAL IN =       6.8238E-05              TOTAL IN =       1.7810E-04

          OUT:                                     OUT:
          ----                                     ----
              STO-SS =           0.0000                STO-SS =           0.0000     STORAGE                          
      CSUB-CGELASTIC =           0.0000        CSUB-CGELASTIC =           0.0000     CSUB                             
        CSUB-ELASTIC =           0.0000          CSUB-ELASTIC =           0.0000     CSUB                             
      CSUB-INELASTIC =           0.0000        CSUB-INELASTIC =           0.0000     CSUB                             
      CSUB-WATERCOMP =           0.0000        CSUB-WATERCOMP =           0.0000     CSUB                             
                 CHD =       6.8236E-05                   CHD =       1.7810E-04     CHD_0                            

           TOTAL OUT =       6.8236E-05             TOTAL OUT =       1.7810E-04

            IN - OUT =       1.7446E-09              IN - OUT =       4.5535E-09

 PERCENT DISCREPANCY =           0.00     PERCENT DISCREPANCY =           0.00




         TIME SUMMARY AT END OF TIME STEP    1 IN STRESS PERIOD    1
                    SECONDS     MINUTES      HOURS       DAYS        YEARS
                    -----------------------------------------------------------
   TIME STEP LENGTH  33103.      551.72      9.1953     0.38314     1.04897E-03
 STRESS PERIOD TIME  33103.      551.72      9.1953     0.38314     1.04897E-03
         TOTAL TIME  33103.      551.72      9.1953     0.38314     1.04897E-03


end timestep


start timestep kper="1" kstp="2" mode="normal"



  VOLUME BUDGET FOR ENTIRE MODEL AT END OF TIME STEP    2, STRESS PERIOD   1
  ---------------------------------------------------------------------------------------------------

     CUMULATIVE VOLUME      L**3       RATES FOR THIS TIME STEP      L**3/T          PACKAGE NAME    
     ------------------                 ------------------------                     ----------------

           IN:                                      IN:
           ---                                      ---
              STO-SS =           0.0000                STO-SS =           0.0000     STORAGE                          
      CSUB-CGELASTIC =           0.0000        CSUB-CGELASTIC =           0.0000     CSUB                             
        CSUB-ELASTIC =           0.0000          CSUB-ELASTIC =           0.0000     CSUB                             
      CSUB-INELASTIC =       1.3535E-04        CSUB-INELASTIC =       1.6681E-04     CSUB                             
      CSUB-WATERCOMP =           0.0000        CSUB-WATERCOMP =           0.0000     CSUB                             
                 CHD =           0.0000                   CHD =           0.0000     CHD_0                            

            TOTAL IN =       1.3535E-04              TOTAL IN =       1.6681E-04

          OUT:                                     OUT:
          ----                                     ----
              STO-SS =           0.0000                STO-SS =           0.0000     STORAGE                          
      CSUB-CGELASTIC =           0.0000        CSUB-CGELASTIC =           0.0000     CSUB                             
        CSUB-ELASTIC =           0.0000          CSUB-ELASTIC =           0.0000     CSUB                             
      CSUB-INELASTIC =           0.0000        CSUB-INELASTIC =           0.0000     CSUB                             
      CSUB-WATERCOMP =           0.0000        CSUB-WATERCOMP =           0.0000     CSUB                             
                 CHD =       1.3534E-04                   CHD =       1.6681E-04     CHD_0                            

           TOTAL OUT =       1.3534E-04             TOTAL OUT =       1.6681E-04

            IN - OUT =       3.5891E-09              IN - OUT =       4.5849E-09

 PERCENT DISCREPANCY =           0.00     PERCENT DISCREPANCY =           0.00




         TIME SUMMARY AT END OF TIME STEP    2 IN STRESS PERIOD    1
                    SECONDS     MINUTES      HOURS       DAYS        YEARS
                    -----------------------------------------------------------
   TIME STEP LENGTH  34758.      579.30      9.6551     0.40229     1.10142E-03
 STRESS PERIOD TIME  67861.      1131.0      18.850     0.78543     2.15040E-03
         TOTAL TIME  67861.      1131.0      18.850     0.78543     2.15040E-03


end timestep


start timestep kper="1" kstp="3" mode="normal"



  VOLUME BUDGET FOR ENTIRE MODEL AT END OF TIME STEP    3, STRESS PERIOD   1
  ---------------------------------------------------------------------------------------------------

     CUMULATIVE VOLUME      L**3       RATES FOR THIS TIME STEP      L**3/T          PACKAGE NAME    
     ------------------                 ------------------------                     ----------------

           IN:                                      IN:
           ---                                      ---
              STO-SS =           0.0000                STO-SS =           0.0000     STORAGE                          
      CSUB-CGELASTIC =           0.0000        CSUB-CGELASTIC =           0.0000     CSUB                             
        CSUB-ELASTIC =           0.0000          CSUB-ELASTIC =           0.0000     CSUB                             
      CSUB-INELASTIC =       2.0130E-04        CSUB-INELASTIC =       1.5613E-04     CSUB                             
      CSUB-WATERCOMP =           0.0000        CSUB-WATERCOMP =           0.0000     CSUB                             
                 CHD =           0.0000                   CHD =           0.0000     CHD_0                            

            TOTAL IN =       2.0130E-04              TOTAL IN =       1.5613E-04

          OUT:                                     OUT:
          ----                                     ----
              STO-SS =           0.0000                STO-SS =           0.0000     STORAGE                          
      CSUB-CGELASTIC =           0.0000        CSUB-CGELASTIC =           0.0000     CSUB                             
        CSUB-ELASTIC =           0.0000          CSUB-ELASTIC =           0.0000     CSUB                             
      CSUB-INELASTIC =           0.0000        CSUB-INELASTIC =           0.0000     CSUB                             
      CSUB-WATERCOMP =           0.0000        CSUB-WATERCOMP =           0.0000     CSUB                             
                 CHD =       2.0129E-04                   CHD =       1.5612E-04     CHD_0                            

           TOTAL OUT =       2.0129E-04             TOTAL OUT =       1.5612E-04

            IN - OUT =       5.5286E-09              IN - OUT =       4.5915E-09

 PERCENT DISCREPANCY =           0.00     PERCENT DISCREPANCY =           0.00




         TIME SUMMARY AT END OF TIME STEP    3 IN STRESS PERIOD    1
                    SECONDS     MINUTES      HOURS       DAYS        YEARS
                    -----------------------------------------------------------
   TIME STEP LENGTH  36496.      608.27      10.138     0.42241     1.15649E-03
 STRESS PERIOD TIME 1.04358E+05  1739.3      28.988      1.2078     3.30689E-03
         TOTAL TIME 1.04358E+05  1739.3      28.988      1.2078     3.30689E-03


end timestep


start timestep kper="1" kstp="4" mode="normal"



  VOLUME BUDGET FOR ENTIRE MODEL AT END OF TIME STEP    4, STRESS PERIOD   1
  ---------------------------------------------------------------------------------------------------

     CUMULATIVE VOLUME      L**3       RATES FOR THIS TIME STEP      L**3/T          PACKAGE NAME    
     ------------------                 ------------------------                     ----------------

           IN:                                      IN:
           ---                                      ---
              STO-SS =           0.0000                STO-SS =           0.0000     STORAGE                          
      CSUB-CGELASTIC =           0.0000        CSUB-CGELASTIC =           0.0000     CSUB                             
        CSUB-ELASTIC =           0.0000          CSUB-ELASTIC =           0.0000     CSUB                             
      CSUB-INELASTIC =       2.6608E-04        CSUB-INELASTIC =       1.4606E-04     CSUB                             
      CSUB-WATERCOMP =           0.0000        CSUB-WATERCOMP =           0.0000     CSUB                             
                 CHD =           0.0000                   CHD =           0.0000     CHD_0                            

            TOTAL IN =       2.6608E-04              TOTAL IN =       1.4606E-04

          OUT:                                     OUT:
          ----                                     ----
              STO-SS =           0.0000                STO-SS =           0.0000     STORAGE                          
      CSUB-CGELASTIC =           0.0000        CSUB-CGELASTIC =           0.0000     CSUB                             
        CSUB-ELASTIC =           0.0000          CSUB-ELASTIC =           0.0000     CSUB                             
      CSUB-INELASTIC =           0.0000        CSUB-INELASTIC =           0.0000     CSUB                             
      CSUB-WATERCOMP =           0.0000        CSUB-WATERCOMP =           0.0000     CSUB                             
                 CHD =       2.6607E-04                   CHD =       1.4606E-04     CHD_0                            

           TOTAL OUT =       2.6607E-04             TOTAL OUT =       1.4606E-04

            IN - OUT =       7.5562E-09              IN - OUT =       4.5715E-09

 PERCENT DISCREPANCY =           0.00     PERCENT DISCREPANCY =           0.00




         TIME SUMMARY AT END OF TIME STEP    4 IN STRESS PERIOD    1
                    SECONDS     MINUTES      HOURS       DAYS        YEARS
                    -----------------------------------------------------------
   TIME STEP LENGTH  38321.      638.68      10.645     0.44353     1.21432E-03
 STRESS PERIOD TIME 1.42679E+05  2378.0      39.633      1.6514     4.52121E-03
         TOTAL TIME 1.42679E+05  2378.0      39.633      1.6514     4.52121E-03


end timestep


start timestep kper="1" kstp="5" mode="normal"



  VOLUME BUDGET FOR ENTIRE MODEL AT END OF TIME STEP    5, STRESS PERIOD   1
  ---------------------------------------------------------------------------------------------------

     CUMULATIVE VOLUME      L**3       RATES FOR THIS TIME STEP      L**3/T          PACKAGE NAME    
     ------------------                 ------------------------                     ----------------

           IN:                                      IN:
           ---                                      ---
              STO-SS =           0.0000                STO-SS =           0.0000     STORAGE                          
      CSUB-CGELASTIC =           0.0000        CSUB-CGELASTIC =           0.0000     CSUB                             
        CSUB-ELASTIC =           0.0000          CSUB-ELASTIC =           0.0000     CSUB                             
      CSUB-INELASTIC =       3.2970E-04        CSUB-INELASTIC =       1.3660E-04     CSUB                             
      CSUB-WATERCOMP =           0.0000        CSUB-WATERCOMP =           0.0000     CSUB                             
                 CHD =           0.0000                   CHD =           0.0000     CHD_0                            

            TOTAL IN =       3.2970E-04              TOTAL IN =       1.3660E-04

          OUT:                                     OUT:
          ----                                     ----
              STO-SS =           0.0000                STO-SS =           0.0000     STORAGE                          
      CSUB-CGELASTIC =           0.0000        CSUB-CGELASTIC =           0.0000     CSUB                             
        CSUB-ELASTIC =           0.0000          CSUB-ELASTIC =           0.0000     CSUB                             
      CSUB-INELASTIC =           0.0000        CSUB-INELASTIC =           0.0000     CSUB                             
      CSUB-WATERCOMP =           0.0000        CSUB-WATERCOMP =           0.0000     CSUB                             
                 CHD =       3.2969E-04                   CHD =       1.3660E-04     CHD_0                            

           TOTAL OUT =       3.2969E-04             TOTAL OUT =       1.3660E-04

            IN - OUT =       9.6621E-09              IN - OUT =       4.5218E-09

 PERCENT DISCREPANCY =           0.00     PERCENT DISCREPANCY =           0.00




         TIME SUMMARY AT END OF TIME STEP    5 IN STRESS PERIOD    1
                    SECONDS     MINUTES      HOURS       DAYS        YEARS
                    -----------------------------------------------------------
   TIME STEP LENGTH  40237.      670.62      11.177     0.46571     1.27504E-03
 STRESS PERIOD TIME 1.82916E+05  3048.6      50.810      2.1171     5.79625E-03
         TOTAL TIME 1.82916E+05  3048.6      50.810      2.1171     5.79625E-03


end timestep


start timestep kper="1" kstp="6" mode="normal"



  VOLUME BUDGET FOR ENTIRE MODEL AT END OF TIME STEP    6, STRESS PERIOD   1
  ---------------------------------------------------------------------------------------------------

     CUMULATIVE VOLUME      L**3       RATES FOR THIS TIME STEP      L**3/T          PACKAGE NAME    
     ------------------                 ------------------------                     ----------------

           IN:                                      IN:
           ---                                      ---
              STO-SS =           0.0000                STO-SS =           0.0000     STORAGE                          
      CSUB-CGELASTIC =           0.0000        CSUB-CGELASTIC =           0.0000     CSUB                             
        CSUB-ELASTIC =           0.0000          CSUB-ELASTIC =           0.0000     CSUB                             
      CSUB-INELASTIC =       3.9216E-04        CSUB-INELASTIC =       1.2775E-04     CSUB                             
      CSUB-WATERCOMP =           0.0000        CSUB-WATERCOMP =           0.0000     CSUB                             
                 CHD =           0.0000                   CHD =           0.0000     CHD_0                            

            TOTAL IN =       3.9216E-04              TOTAL IN =       1.2775E-04

          OUT:                                     OUT:
          ----                                     ----
              STO-SS =           0.0000                STO-SS =           0.0000     STORAGE                          
      CSUB-CGELASTIC =           0.0000        CSUB-CGELASTIC =           0.0000     CSUB                             
        CSUB-ELASTIC =           0.0000          CSUB-ELASTIC =           0.0000     CSUB                             
      CSUB-INELASTIC =           0.0000        CSUB-INELASTIC =           0.0000     CSUB                             
      CSUB-WATERCOMP =           0.0000        CSUB-WATERCOMP =           0.0000     CSUB                             
                 CHD =       3.9215E-04                   CHD =       1.2775E-04     CHD_0                            

           TOTAL OUT =       3.9215E-04             TOTAL OUT =       1.2775E-04

            IN - OUT =       1.1833E-08              IN - OUT =       4.4391E-09

 PERCENT DISCREPANCY =           0.00     PERCENT DISCREPANCY =           0.00




         TIME SUMMARY AT END OF TIME STEP    6 IN STRESS PERIOD    1
                    SECONDS     MINUTES      HOURS       DAYS        YEARS
                    -----------------------------------------------------------
   TIME STEP LENGTH  42249.      704.15      11.736     0.48899     1.33879E-03
 STRESS PERIOD TIME 2.25165E+05  3752.7      62.546      2.6061     7.13504E-03
         TOTAL TIME 2.25165E+05  3752.7      62.546      2.6061     7.13504E-03


end timestep


start timestep kper="1" kstp="7" mode="normal"



  VOLUME BUDGET FOR ENTIRE MODEL AT END OF TIME STEP    7, STRESS PERIOD   1
  ---------------------------------------------------------------------------------------------------

     CUMULATIVE VOLUME      L**3       RATES FOR THIS TIME STEP      L**3/T          PACKAGE NAME    
     ------------------                 ------------------------                     ----------------

           IN:                                      IN:
           ---                                      ---
              STO-SS =           0.0000                STO-SS =           0.0000     STORAGE                          
      CSUB-CGELASTIC =           0.0000        CSUB-CGELASTIC =           0.0000     CSUB                             
        CSUB-ELASTIC =           0.0000          CSUB-ELASTIC =           0.0000     CSUB                             
      CSUB-INELASTIC =       4.5352E-04        CSUB-INELASTIC =       1.1949E-04     CSUB                             
      CSUB-WATERCOMP =           0.0000        CSUB-WATERCOMP =           0.0000     CSUB                             
                 CHD =           0.0000                   CHD =           0.0000     CHD_0                            

            TOTAL IN =       4.5352E-04              TOTAL IN =       1.1949E-04

          OUT:                                     OUT:
          ----                                     ----
              STO-SS =           0.0000                STO-SS =           0.0000     STORAGE                          
      CSUB-CGELASTIC =           0.0000        CSUB-CGELASTIC =           0.0000     CSUB                             
        CSUB-ELASTIC =           0.0000          CSUB-ELASTIC =           0.0000     CSUB                             
      CSUB-INELASTIC =           0.0000        CSUB-INELASTIC =           0.0000     CSUB                             
      CSUB-WATERCOMP =           0.0000        CSUB-WATERCOMP =           0.0000     CSUB                             
                 CHD =       4.5350E-04                   CHD =       1.1949E-04     CHD_0                            

           TOTAL OUT =       4.5350E-04             TOTAL OUT =       1.1949E-04

            IN - OUT =       1.4051E-08              IN - OUT =       4.3199E-09

 PERCENT DISCREPANCY =           0.00     PERCENT DISCREPANCY =           0.00




         TIME SUMMARY AT END OF TIME STEP    7 IN STRESS PERIOD    1
                    SECONDS     MINUTES      HOURS       DAYS        YEARS
                    -----------------------------------------------------------
   TIME STEP LENGTH  44361.      739.36      12.323     0.51344     1.40573E-03
 STRESS PERIOD TIME 2.69526E+05  4492.1      74.868      3.1195     8.54076E-03
         TOTAL TIME 2.69526E+05  4492.1      74.868      3.1195     8.54076E-03


end timestep


start timestep kper="1" kstp="8" mode="normal"



  VOLUME BUDGET FOR ENTIRE MODEL AT END OF TIME STEP    8, STRESS PERIOD   1
  ---------------------------------------------------------------------------------------------------

     CUMULATIVE VOLUME      L**3       RATES FOR THIS TIME STEP      L**3/T          PACKAGE NAME    
     ------------------                 ------------------------                     ----------------

           IN:                                      IN:
           ---                                      ---
              STO-SS =           0.0000                STO-SS =           0.0000     STORAGE                          
      CSUB-CGELASTIC =           0.0000        CSUB-CGELASTIC =           0.0000     CSUB                             
        CSUB-ELASTIC =           0.0000          CSUB-ELASTIC =           0.0000     CSUB                             
      CSUB-INELASTIC =       5.1379E-04        CSUB-INELASTIC =       1.1181E-04     CSUB                             
      CSUB-WATERCOMP =           0.0000        CSUB-WATERCOMP =           0.0000     CSUB                             
                 CHD =           0.0000                   CHD =           0.0000     CHD_0                            

            TOTAL IN =       5.1379E-04              TOTAL IN =       1.1181E-04

          OUT:                                     OUT:
          ----                                     ----
              STO-SS =           0.0000                STO-SS =           0.0000     STORAGE                          
      CSUB-CGELASTIC =           0.0000        CSUB-CGELASTIC =           0.0000     CSUB                             
        CSUB-ELASTIC =           0.0000          CSUB-ELASTIC =           0.0000     CSUB                             
      CSUB-INELASTIC =           0.0000        CSUB-INELASTIC =           0.0000     CSUB                             
      CSUB-WATERCOMP =           0.0000        CSUB-WATERCOMP =           0.0000     CSUB                             
                 CHD =       5.1378E-04                   CHD =       1.1180E-04     CHD_0                            

           TOTAL OUT =       5.1378E-04             TOTAL OUT =       1.1180E-04

            IN - OUT =       1.6295E-08              IN - OUT =       4.1619E-09

 PERCENT DISCREPANCY =           0.00     PERCENT DISCREPANCY =           0.00




         TIME SUMMARY AT END OF TIME STEP    8 IN STRESS PERIOD    1
                    SECONDS     MINUTES      HOURS       DAYS        YEARS
                    -----------------------------------------------------------
   TIME STEP LENGTH  46579.      776.32      12.939     0.53911     1.47601E-03
 STRESS PERIOD TIME 3.16105E+05  5268.4      87.807      3.6586     1.00168E-02
         TOTAL TIME 3.16105E+05  5268.4      87.807      3.6586     1.00168E-02


end timestep


start timestep kper="1" kstp="9" mode="normal"



  VOLUME BUDGET FOR ENTIRE MODEL AT END OF TIME STEP    9, STRESS PERIOD   1
  ---------------------------------------------------------------------------------------------------

     CUMULATIVE VOLUME      L**3       RATES FOR THIS TIME STEP      L**3/T          PACKAGE NAME    
     ------------------                 ------------------------                     ----------------

           IN:                                      IN:
           ---                                      ---
              STO-SS =           0.0000                STO-SS =           0.0000     STORAGE                          
      CSUB-CGELASTIC =           0.0000        CSUB-CGELASTIC =           0.0000     CSUB                             
        CSUB-ELASTIC =           0.0000          CSUB-ELASTIC =           0.0000     CSUB                             
      CSUB-INELASTIC =       5.7305E-04        CSUB-INELASTIC =       1.0468E-04     CSUB                             
      CSUB-WATERCOMP =           0.0000        CSUB-WATERCOMP =           0.0000     CSUB                             
                 CHD =           0.0000                   CHD =           0.0000     CHD_0                            

            TOTAL IN =       5.7305E-04              TOTAL IN =       1.0468E-04

          OUT:                                     OUT:
          ----                                     ----
              STO-SS =           0.0000                STO-SS =           0.0000     STORAGE                          
      CSUB-CGELASTIC =           0.0000        CSUB-CGELASTIC =           0.0000     CSUB                             
        CSUB-ELASTIC =           0.0000          CSUB-ELASTIC =           0.0000     CSUB                             
      CSUB-INELASTIC =           0.0000        CSUB-INELASTIC =           0.0000     CSUB                             
      CSUB-WATERCOMP =           0.0000        CSUB-WATERCOMP =           0.0000     CSUB                             
                 CHD =       5.7303E-04                   CHD =       1.0468E-04     CHD_0                            

           TOTAL OUT =       5.7303E-04             TOTAL OUT =       1.0468E-04

            IN - OUT =       1.8539E-08              IN - OUT =       3.9650E-09

 PERCENT DISCREPANCY =           0.00     PERCENT DISCREPANCY =           0.00




         TIME SUMMARY AT END OF TIME STEP    9 IN STRESS PERIOD    1
                    SECONDS     MINUTES      HOURS       DAYS        YEARS
                    -----------------------------------------------------------
   TIME STEP LENGTH  48908.      815.14      13.586     0.56607     1.54981E-03
 STRESS PERIOD TIME 3.65014E+05  6083.6      101.39      4.2247     1.15666E-02
         TOTAL TIME 3.65014E+05  6083.6      101.39      4.2247     1.15666E-02


end timestep


start timestep kper="1" kstp="10" mode="normal"



  VOLUME BUDGET FOR ENTIRE MODEL AT END OF TIME STEP   10, STRESS PERIOD   1
  ---------------------------------------------------------------------------------------------------

     CUMULATIVE VOLUME      L**3       RATES FOR THIS TIME STEP      L**3/T          PACKAGE NAME    
     ------------------                 ------------------------                     ----------------

           IN:                                      IN:
           ---                                      ---
              STO-SS =           0.0000                STO-SS =           0.0000     STORAGE                          
      CSUB-CGELASTIC =           0.0000        CSUB-CGELASTIC =           0.0000     CSUB                             
        CSUB-ELASTIC =           0.0000          CSUB-ELASTIC =           0.0000     CSUB                             
      CSUB-INELASTIC =       6.3136E-04        CSUB-INELASTIC =       9.8098E-05     CSUB                             
      CSUB-WATERCOMP =           0.0000        CSUB-WATERCOMP =           0.0000     CSUB                             
                 CHD =           0.0000                   CHD =           0.0000     CHD_0                            

            TOTAL IN =       6.3136E-04              TOTAL IN =       9.8098E-05

          OUT:                                     OUT:
          ----                                     ----
              STO-SS =           0.0000                STO-SS =           0.0000     STORAGE                          
      CSUB-CGELASTIC =           0.0000        CSUB-CGELASTIC =           0.0000     CSUB                             
        CSUB-ELASTIC =           0.0000          CSUB-ELASTIC =           0.0000     CSUB                             
      CSUB-INELASTIC =           0.0000        CSUB-INELASTIC =           0.0000     CSUB                             
      CSUB-WATERCOMP =           0.0000        CSUB-WATERCOMP =           0.0000     CSUB                             
                 CHD =       6.3134E-04                   CHD =       9.8094E-05     CHD_0                            

           TOTAL OUT =       6.3134E-04             TOTAL OUT =       9.8094E-05

            IN - OUT =       2.0758E-08              IN - OUT =       3.7326E-09

 PERCENT DISCREPANCY =           0.00     PERCENT DISCREPANCY =           0.00




         TIME SUMMARY AT END OF TIME STEP   10 IN STRESS PERIOD    1
                    SECONDS     MINUTES      HOURS       DAYS        YEARS
                    -----------------------------------------------------------
   TIME STEP LENGTH  51354.      855.90      14.265     0.59437     1.62730E-03
 STRESS PERIOD TIME 4.16368E+05  6939.5      115.66      4.8191     1.31939E-02
         TOTAL TIME 4.16368E+05  6939.5      115.66      4.8191     1.31939E-02


end timestep


start timestep kper="1" kstp="11" mode="normal"



  VOLUME BUDGET FOR ENTIRE MODEL AT END OF TIME STEP   11, STRESS PERIOD   1
  ---------------------------------------------------------------------------------------------------

     CUMULATIVE VOLUME      L**3       RATES FOR THIS TIME STEP      L**3/T          PACKAGE NAME    
     ------------------                 ------------------------                     ----------------

           IN:                                      IN:
           ---                                      ---
              STO-SS =           0.0000                STO-SS =           0.0000     STORAGE                          
      CSUB-CGELASTIC =           0.0000        CSUB-CGELASTIC =           0.0000     CSUB                             
        CSUB-ELASTIC =           0.0000          CSUB-ELASTIC =           0.0000     CSUB                             
      CSUB-INELASTIC =       6.8879E-04        CSUB-INELASTIC =       9.2024E-05     CSUB                             
      CSUB-WATERCOMP =           0.0000        CSUB-WATERCOMP =           0.0000     CSUB                             
                 CHD =           0.0000                   CHD =           0.0000     CHD_0                            

            TOTAL IN =       6.8879E-04              TOTAL IN =       9.2024E-05

          OUT:                                     OUT:
          ----                                     ----
              STO-SS =           0.0000                STO-SS =           0.0000     STORAGE                          
      CSUB-CGELASTIC =           0.0000        CSUB-CGELASTIC =           0.0000     CSUB                             
        CSUB-ELASTIC =           0.0000          CSUB-ELASTIC =           0.0000     CSUB                             
      CSUB-INELASTIC =           0.0000        CSUB-INELASTIC =           0.0000     CSUB                             
      CSUB-WATERCOMP =           0.0000        CSUB-WATERCOMP =           0.0000     CSUB                             
                 CHD =       6.8877E-04                   CHD =       9.2021E-05     CHD_0                            

           TOTAL OUT =       6.8877E-04             TOTAL OUT =       9.2021E-05

            IN - OUT =       2.2924E-08              IN - OUT =       3.4716E-09

 PERCENT DISCREPANCY =           0.00     PERCENT DISCREPANCY =           0.00




         TIME SUMMARY AT END OF TIME STEP   11 IN STRESS PERIOD    1
                    SECONDS     MINUTES      HOURS       DAYS        YEARS
                    -----------------------------------------------------------
   TIME STEP LENGTH  53922.      898.69      14.978     0.62409     1.70867E-03
 STRESS PERIOD TIME 4.70289E+05  7838.2      130.64      5.4432     1.49026E-02
         TOTAL TIME 4.70289E+05  7838.2      130.64      5.4432     1.49026E-02


end timestep


start timestep kper="1" kstp="12" mode="normal"



  VOLUME BUDGET FOR ENTIRE MODEL AT END OF TIME STEP   12, STRESS PERIOD   1
  ---------------------------------------------------------------------------------------------------

     CUMULATIVE VOLUME      L**3       RATES FOR THIS TIME STEP      L**3/T          PACKAGE NAME    
     ------------------                 ------------------------                     ----------------

           IN:                                      IN:
           ---                                      ---
              STO-SS =           0.0000                STO-SS =           0.0000     STORAGE                          
      CSUB-CGELASTIC =           0.0000        CSUB-CGELASTIC =           0.0000     CSUB                             
        CSUB-ELASTIC =           0.0000          CSUB-ELASTIC =           0.0000     CSUB                             
      CSUB-INELASTIC =       7.4543E-04        CSUB-INELASTIC =       8.6435E-05     CSUB                             
      CSUB-WATERCOMP =           0.0000        CSUB-WATERCOMP =           0.0000     CSUB                             
                 CHD =           0.0000                   CHD =           0.0000     CHD_0                            

            TOTAL IN =       7.4543E-04              TOTAL IN =       8.6435E-05

          OUT:                                     OUT:
          ----                                     ----
              STO-SS =           0.0000                STO-SS =           0.0000     STORAGE                          
      CSUB-CGELASTIC =           0.0000        CSUB-CGELASTIC =           0.0000     CSUB                             
        CSUB-ELASTIC =           0.0000          CSUB-ELASTIC =           0.0000     CSUB                             
      CSUB-INELASTIC =           0.0000        CSUB-INELASTIC =           0.0000     CSUB                             
      CSUB-WATERCOMP =           0.0000        CSUB-WATERCOMP =           0.0000     CSUB                             
                 CHD =       7.4541E-04                   CHD =       8.6432E-05     CHD_0                            

           TOTAL OUT =       7.4541E-04             TOTAL OUT =       8.6432E-05

            IN - OUT =       2.5016E-08              IN - OUT =       3.1917E-09

 PERCENT DISCREPANCY =           0.00     PERCENT DISCREPANCY =           0.00




         TIME SUMMARY AT END OF TIME STEP   12 IN STRESS PERIOD    1
                    SECONDS     MINUTES      HOURS       DAYS        YEARS
                    -----------------------------------------------------------
   TIME STEP LENGTH  56618.      943.63      15.727     0.65530     1.79410E-03
 STRESS PERIOD TIME 5.26907E+05  8781.8      146.36      6.0985     1.66967E-02
         TOTAL TIME 5.26907E+05  8781.8      146.36      6.0985     1.66967E-02


end timestep


start timestep kper="1" kstp="13" mode="normal"



  VOLUME BUDGET FOR ENTIRE MODEL AT END OF TIME STEP   13, STRESS PERIOD   1
  ---------------------------------------------------------------------------------------------------

     CUMULATIVE VOLUME      L**3       RATES FOR THIS TIME STEP      L**3/T          PACKAGE NAME    
     ------------------                 ------------------------                     ----------------

           IN:                                      IN:
           ---                                      ---
              STO-SS =           0.0000                STO-SS =           0.0000     STORAGE                          
      CSUB-CGELASTIC =           0.0000        CSUB-CGELASTIC =           0.0000     CSUB                             
        CSUB-ELASTIC =           0.0000          CSUB-ELASTIC =           0.0000     CSUB                             
      CSUB-INELASTIC =       8.0137E-04        CSUB-INELASTIC =       8.1303E-05     CSUB                             
      CSUB-WATERCOMP =           0.0000        CSUB-WATERCOMP =           0.0000     CSUB                             
                 CHD =           0.0000                   CHD =           0.0000     CHD_0                            

            TOTAL IN =       8.0137E-04              TOTAL IN =       8.1303E-05

          OUT:                                     OUT:
          ----                                     ----
              STO-SS =           0.0000                STO-SS =           0.0000     STORAGE                          
      CSUB-CGELASTIC =           0.0000        CSUB-CGELASTIC =           0.0000     CSUB                             
        CSUB-ELASTIC =           0.0000          CSUB-ELASTIC =           0.0000     CSUB                             
      CSUB-INELASTIC =           0.0000        CSUB-INELASTIC =           0.0000     CSUB                             
      CSUB-WATERCOMP =           0.0000        CSUB-WATERCOMP =           0.0000     CSUB                             
                 CHD =       8.0135E-04                   CHD =       8.1300E-05     CHD_0                            

           TOTAL OUT =       8.0135E-04             TOTAL OUT =       8.1300E-05

            IN - OUT =       2.7190E-08              IN - OUT =       3.1597E-09

 PERCENT DISCREPANCY =           0.00     PERCENT DISCREPANCY =           0.00




         TIME SUMMARY AT END OF TIME STEP   13 IN STRESS PERIOD    1
                    SECONDS     MINUTES      HOURS       DAYS        YEARS
                    -----------------------------------------------------------
   TIME STEP LENGTH  59448.      990.81      16.513     0.68806     1.88381E-03
 STRESS PERIOD TIME 5.86355E+05  9772.6      162.88      6.7865     1.85805E-02
         TOTAL TIME 5.86355E+05  9772.6      162.88      6.7865     1.85805E-02


end timestep


start timestep kper="1" kstp="14" mode="normal"



  VOLUME BUDGET FOR ENTIRE MODEL AT END OF TIME STEP   14, STRESS PERIOD   1
  ---------------------------------------------------------------------------------------------------

     CUMULATIVE VOLUME      L**3       RATES FOR THIS TIME STEP      L**3/T          PACKAGE NAME    
     ------------------                 ------------------------                     ----------------

           IN:                                      IN:
           ---                                      ---
              STO-SS =           0.0000                STO-SS =           0.0000     STORAGE                          
      CSUB-CGELASTIC =           0.0000        CSUB-CGELASTIC =           0.0000     CSUB                             
        CSUB-ELASTIC =           0.0000          CSUB-ELASTIC =           0.0000     CSUB                             
      CSUB-INELASTIC =       8.5671E-04        CSUB-INELASTIC =       7.6598E-05     CSUB                             
      CSUB-WATERCOMP =           0.0000        CSUB-WATERCOMP =           0.0000     CSUB                             
                 CHD =           0.0000                   CHD =           0.0000     CHD_0                            

            TOTAL IN =       8.5671E-04              TOTAL IN =       7.6598E-05

          OUT:                                     OUT:
          ----                                     ----
              STO-SS =           0.0000                STO-SS =           0.0000     STORAGE                          
      CSUB-CGELASTIC =           0.0000        CSUB-CGELASTIC =           0.0000     CSUB                             
        CSUB-ELASTIC =           0.0000          CSUB-ELASTIC =           0.0000     CSUB                             
      CSUB-INELASTIC =           0.0000        CSUB-INELASTIC =           0.0000     CSUB                             
      CSUB-WATERCOMP =           0.0000        CSUB-WATERCOMP =           0.0000     CSUB                             
                 CHD =       8.5668E-04                   CHD =       7.6595E-05     CHD_0                            

           TOTAL OUT =       8.5668E-04             TOTAL OUT =       7.6595E-05

            IN - OUT =       2.9214E-08              IN - OUT =       2.8017E-09

 PERCENT DISCREPANCY =           0.00     PERCENT DISCREPANCY =           0.00




         TIME SUMMARY AT END OF TIME STEP   14 IN STRESS PERIOD    1
                    SECONDS     MINUTES      HOURS       DAYS        YEARS
                    -----------------------------------------------------------
   TIME STEP LENGTH  62421.      1040.3      17.339     0.72246     1.97800E-03
 STRESS PERIOD TIME 6.48776E+05  10813.      180.22      7.5090     2.05585E-02
         TOTAL TIME 6.48776E+05  10813.      180.22      7.5090     2.05585E-02


end timestep


start timestep kper="1" kstp="15" mode="normal"



  VOLUME BUDGET FOR ENTIRE MODEL AT END OF TIME STEP   15, STRESS PERIOD   1
  ---------------------------------------------------------------------------------------------------

     CUMULATIVE VOLUME      L**3       RATES FOR THIS TIME STEP      L**3/T          PACKAGE NAME    
     ------------------                 ------------------------                     ----------------

           IN:                                      IN:
           ---                                      ---
              STO-SS =           0.0000                STO-SS =           0.0000     STORAGE                          
      CSUB-CGELASTIC =           0.0000        CSUB-CGELASTIC =           0.0000     CSUB                             
        CSUB-ELASTIC =           0.0000          CSUB-ELASTIC =           0.0000     CSUB                             
      CSUB-INELASTIC =       9.1155E-04        CSUB-INELASTIC =       7.2290E-05     CSUB                             
      CSUB-WATERCOMP =           0.0000        CSUB-WATERCOMP =           0.0000     CSUB                             
                 CHD =           0.0000                   CHD =           0.0000     CHD_0                            

            TOTAL IN =       9.1155E-04              TOTAL IN =       7.2290E-05

          OUT:                                     OUT:
          ----                                     ----
              STO-SS =           0.0000                STO-SS =           0.0000     STORAGE                          
      CSUB-CGELASTIC =           0.0000        CSUB-CGELASTIC =           0.0000     CSUB                             
        CSUB-ELASTIC =           0.0000          CSUB-ELASTIC =           0.0000     CSUB                             
      CSUB-INELASTIC =           0.0000        CSUB-INELASTIC =           0.0000     CSUB                             
      CSUB-WATERCOMP =           0.0000        CSUB-WATERCOMP =           0.0000     CSUB                             
                 CHD =       9.1152E-04                   CHD =       7.2287E-05     CHD_0                            

           TOTAL OUT =       9.1152E-04             TOTAL OUT =       7.2287E-05

            IN - OUT =       3.1091E-08              IN - OUT =       2.4746E-09

 PERCENT DISCREPANCY =           0.00     PERCENT DISCREPANCY =           0.00




         TIME SUMMARY AT END OF TIME STEP   15 IN STRESS PERIOD    1
                    SECONDS     MINUTES      HOURS       DAYS        YEARS
                    -----------------------------------------------------------
   TIME STEP LENGTH  65542.      1092.4      18.206     0.75859     2.07690E-03
 STRESS PERIOD TIME 7.14318E+05  11905.      198.42      8.2676     2.26354E-02
         TOTAL TIME 7.14318E+05  11905.      198.42      8.2676     2.26354E-02


end timestep


start timestep kper="1" kstp="16" mode="normal"



  VOLUME BUDGET FOR ENTIRE MODEL AT END OF TIME STEP   16, STRESS PERIOD   1
  ---------------------------------------------------------------------------------------------------

     CUMULATIVE VOLUME      L**3       RATES FOR THIS TIME STEP      L**3/T          PACKAGE NAME    
     ------------------                 ------------------------                     ----------------

           IN:                                      IN:
           ---                                      ---
              STO-SS =           0.0000                STO-SS =           0.0000     STORAGE                          
      CSUB-CGELASTIC =           0.0000        CSUB-CGELASTIC =           0.0000     CSUB                             
        CSUB-ELASTIC =           0.0000          CSUB-ELASTIC =           0.0000     CSUB                             
      CSUB-INELASTIC =       9.6599E-04        CSUB-INELASTIC =       6.8347E-05     CSUB                             
      CSUB-WATERCOMP =           0.0000        CSUB-WATERCOMP =           0.0000     CSUB                             
                 CHD =           0.0000                   CHD =           0.0000     CHD_0                            

            TOTAL IN =       9.6599E-04              TOTAL IN =       6.8347E-05

          OUT:                                     OUT:
          ----                                     ----
              STO-SS =           0.0000                STO-SS =           0.0000     STORAGE                          
      CSUB-CGELASTIC =           0.0000        CSUB-CGELASTIC =           0.0000     CSUB                             
        CSUB-ELASTIC =           0.0000          CSUB-ELASTIC =           0.0000     CSUB                             
      CSUB-INELASTIC =           0.0000        CSUB-INELASTIC =           0.0000     CSUB                             
      CSUB-WATERCOMP =           0.0000        CSUB-WATERCOMP =           0.0000     CSUB                             
                 CHD =       9.6596E-04                   CHD =       6.8344E-05     CHD_0                            

           TOTAL OUT =       9.6596E-04             TOTAL OUT =       6.8344E-05

            IN - OUT =       3.2828E-08              IN - OUT =       2.1811E-09

 PERCENT DISCREPANCY =           0.00     PERCENT DISCREPANCY =           0.00




         TIME SUMMARY AT END OF TIME STEP   16 IN STRESS PERIOD    1
                    SECONDS     MINUTES      HOURS       DAYS        YEARS
                    -----------------------------------------------------------
   TIME STEP LENGTH  68819.      1147.0      19.116     0.79652     2.18074E-03
 STRESS PERIOD TIME 7.83137E+05  13052.      217.54      9.0641     2.48161E-02
         TOTAL TIME 7.83137E+05  13052.      217.54      9.0641     2.48161E-02


end timestep


start timestep kper="1" kstp="17" mode="normal"



  VOLUME BUDGET FOR ENTIRE MODEL AT END OF TIME STEP   17, STRESS PERIOD   1
  ---------------------------------------------------------------------------------------------------

     CUMULATIVE VOLUME      L**3       RATES FOR THIS TIME STEP      L**3/T          PACKAGE NAME    
     ------------------                 ------------------------                     ----------------

           IN:                                      IN:
           ---                                      ---
              STO-SS =           0.0000                STO-SS =           0.0000     STORAGE                          
      CSUB-CGELASTIC =           0.0000        CSUB-CGELASTIC =           0.0000     CSUB                             
        CSUB-ELASTIC =           0.0000          CSUB-ELASTIC =           0.0000     CSUB                             
      CSUB-INELASTIC =       1.0201E-03        CSUB-INELASTIC =       6.4739E-05     CSUB                             
      CSUB-WATERCOMP =           0.0000        CSUB-WATERCOMP =           0.0000     CSUB                             
                 CHD =           0.0000                   CHD =           0.0000     CHD_0                            

            TOTAL IN =       1.0201E-03              TOTAL IN =       6.4739E-05

          OUT:                                     OUT:
          ----                                     ----
              STO-SS =           0.0000                STO-SS =           0.0000     STORAGE                          
      CSUB-CGELASTIC =           0.0000        CSUB-CGELASTIC =           0.0000     CSUB                             
        CSUB-ELASTIC =           0.0000          CSUB-ELASTIC =           0.0000     CSUB                             
      CSUB-INELASTIC =           0.0000        CSUB-INELASTIC =           0.0000     CSUB                             
      CSUB-WATERCOMP =           0.0000        CSUB-WATERCOMP =           0.0000     CSUB                             
                 CHD =       1.0201E-03                   CHD =       6.4738E-05     CHD_0                            

           TOTAL OUT =       1.0201E-03             TOTAL OUT =       6.4738E-05

            IN - OUT =       3.4435E-08              IN - OUT =       1.9209E-09

 PERCENT DISCREPANCY =           0.00     PERCENT DISCREPANCY =           0.00




         TIME SUMMARY AT END OF TIME STEP   17 IN STRESS PERIOD    1
                    SECONDS     MINUTES      HOURS       DAYS        YEARS
                    -----------------------------------------------------------
   TIME STEP LENGTH  72260.      1204.3      20.072     0.83634     2.28978E-03
 STRESS PERIOD TIME 8.55397E+05  14257.      237.61      9.9004     2.71059E-02
         TOTAL TIME 8.55397E+05  14257.      237.61      9.9004     2.71059E-02


end timestep


start timestep kper="1" kstp="18" mode="normal"



  VOLUME BUDGET FOR ENTIRE MODEL AT END OF TIME STEP   18, STRESS PERIOD   1
  ---------------------------------------------------------------------------------------------------

     CUMULATIVE VOLUME      L**3       RATES FOR THIS TIME STEP      L**3/T          PACKAGE NAME    
     ------------------                 ------------------------                     ----------------

           IN:                                      IN:
           ---                                      ---
              STO-SS =           0.0000                STO-SS =           0.0000     STORAGE                          
      CSUB-CGELASTIC =           0.0000        CSUB-CGELASTIC =           0.0000     CSUB                             
        CSUB-ELASTIC =           0.0000          CSUB-ELASTIC =           0.0000     CSUB                             
      CSUB-INELASTIC =       1.0741E-03        CSUB-INELASTIC =       6.1439E-05     CSUB                             
      CSUB-WATERCOMP =           0.0000        CSUB-WATERCOMP =           0.0000     CSUB                             
                 CHD =           0.0000                   CHD =           0.0000     CHD_0                            

            TOTAL IN =       1.0741E-03              TOTAL IN =       6.1439E-05

          OUT:                                     OUT:
          ----                                     ----
              STO-SS =           0.0000                STO-SS =           0.0000     STORAGE                          
      CSUB-CGELASTIC =           0.0000        CSUB-CGELASTIC =           0.0000     CSUB                             
        CSUB-ELASTIC =           0.0000          CSUB-ELASTIC =           0.0000     CSUB                             
      CSUB-INELASTIC =           0.0000        CSUB-INELASTIC =           0.0000     CSUB                             
      CSUB-WATERCOMP =           0.0000        CSUB-WATERCOMP =           0.0000     CSUB                             
                 CHD =       1.0741E-03                   CHD =       6.1437E-05     CHD_0                            

           TOTAL OUT =       1.0741E-03             TOTAL OUT =       6.1437E-05

            IN - OUT =       3.5921E-08              IN - OUT =       1.6924E-09

 PERCENT DISCREPANCY =           0.00     PERCENT DISCREPANCY =           0.00




         TIME SUMMARY AT END OF TIME STEP   18 IN STRESS PERIOD    1
                    SECONDS     MINUTES      HOURS       DAYS        YEARS
                    -----------------------------------------------------------
   TIME STEP LENGTH  75873.      1264.5      21.076     0.87816     2.40427E-03
 STRESS PERIOD TIME 9.31270E+05  15521.      258.69      10.779     2.95102E-02
         TOTAL TIME 9.31270E+05  15521.      258.69      10.779     2.95102E-02


end timestep


start timestep kper="1" kstp="19" mode="normal"



  VOLUME BUDGET FOR ENTIRE MODEL AT END OF TIME STEP   19, STRESS PERIOD   1
  ---------------------------------------------------------------------------------------------------

     CUMULATIVE VOLUME      L**3       RATES FOR THIS TIME STEP      L**3/T          PACKAGE NAME    
     ------------------                 ------------------------                     ----------------

           IN:                                      IN:
           ---                                      ---
              STO-SS =           0.0000                STO-SS =           0.0000     STORAGE                          
      CSUB-CGELASTIC =           0.0000        CSUB-CGELASTIC =           0.0000     CSUB                             
        CSUB-ELASTIC =           0.0000          CSUB-ELASTIC =           0.0000     CSUB                             
      CSUB-INELASTIC =       1.1279E-03        CSUB-INELASTIC =       5.8416E-05     CSUB                             
      CSUB-WATERCOMP =           0.0000        CSUB-WATERCOMP =           0.0000     CSUB                             
                 CHD =           0.0000                   CHD =           0.0000     CHD_0                            

            TOTAL IN =       1.1279E-03              TOTAL IN =       5.8416E-05

          OUT:                                     OUT:
          ----                                     ----
              STO-SS =           0.0000                STO-SS =           0.0000     STORAGE                          
      CSUB-CGELASTIC =           0.0000        CSUB-CGELASTIC =           0.0000     CSUB                             
        CSUB-ELASTIC =           0.0000          CSUB-ELASTIC =           0.0000     CSUB                             
      CSUB-INELASTIC =           0.0000        CSUB-INELASTIC =           0.0000     CSUB                             
      CSUB-WATERCOMP =           0.0000        CSUB-WATERCOMP =           0.0000     CSUB                             
                 CHD =       1.1279E-03                   CHD =       5.8414E-05     CHD_0                            

           TOTAL OUT =       1.1279E-03             TOTAL OUT =       5.8414E-05

            IN - OUT =       3.7298E-08              IN - OUT =       1.4929E-09

 PERCENT DISCREPANCY =           0.00     PERCENT DISCREPANCY =           0.00




         TIME SUMMARY AT END OF TIME STEP   19 IN STRESS PERIOD    1
                    SECONDS     MINUTES      HOURS       DAYS        YEARS
                    -----------------------------------------------------------
   TIME STEP LENGTH  79667.      1327.8      22.130     0.92207     2.52448E-03
 STRESS PERIOD TIME 1.01094E+06  16849.      280.82      11.701     3.20346E-02
         TOTAL TIME 1.01094E+06  16849.      280.82      11.701     3.20346E-02


end timestep


start timestep kper="1" kstp="20" mode="normal"



  VOLUME BUDGET FOR ENTIRE MODEL AT END OF TIME STEP   20, STRESS PERIOD   1
  ---------------------------------------------------------------------------------------------------

     CUMULATIVE VOLUME      L**3       RATES FOR THIS TIME STEP      L**3/T          PACKAGE NAME    
     ------------------                 ------------------------                     ----------------

           IN:                                      IN:
           ---                                      ---
              STO-SS =           0.0000                STO-SS =           0.0000     STORAGE                          
      CSUB-CGELASTIC =           0.0000        CSUB-CGELASTIC =           0.0000     CSUB                             
        CSUB-ELASTIC =           0.0000          CSUB-ELASTIC =           0.0000     CSUB                             
      CSUB-INELASTIC =       1.1818E-03        CSUB-INELASTIC =       5.5645E-05     CSUB                             
      CSUB-WATERCOMP =           0.0000        CSUB-WATERCOMP =           0.0000     CSUB                             
                 CHD =           0.0000                   CHD =           0.0000     CHD_0                            

            TOTAL IN =       1.1818E-03              TOTAL IN =       5.5645E-05

          OUT:                                     OUT:
          ----                                     ----
              STO-SS =           0.0000                STO-SS =           0.0000     STORAGE                          
      CSUB-CGELASTIC =           0.0000        CSUB-CGELASTIC =           0.0000     CSUB                             
        CSUB-ELASTIC =           0.0000          CSUB-ELASTIC =           0.0000     CSUB                             
      CSUB-INELASTIC =           0.0000        CSUB-INELASTIC =           0.0000     CSUB                             
      CSUB-WATERCOMP =           0.0000        CSUB-WATERCOMP =           0.0000     CSUB                             
                 CHD =       1.1818E-03                   CHD =       5.5643E-05     CHD_0                            

           TOTAL OUT =       1.1818E-03             TOTAL OUT =       5.5643E-05

            IN - OUT =       3.8575E-08              IN - OUT =       1.3192E-09

 PERCENT DISCREPANCY =           0.00     PERCENT DISCREPANCY =           0.00




         TIME SUMMARY AT END OF TIME STEP   20 IN STRESS PERIOD    1
[...]
           ---                                      ---
              STO-SS =           0.0000                STO-SS =           0.0000     STORAGE                          
      CSUB-CGELASTIC =           0.0000        CSUB-CGELASTIC =           0.0000     CSUB                             
        CSUB-ELASTIC =           0.0000          CSUB-ELASTIC =           0.0000     CSUB                             
      CSUB-INELASTIC =       8.6538E-03        CSUB-INELASTIC =       3.3378E-06     CSUB                             
      CSUB-WATERCOMP =           0.0000        CSUB-WATERCOMP =           0.0000     CSUB                             
                 CHD =           0.0000                   CHD =           0.0000     CHD_0                            

            TOTAL IN =       8.6538E-03              TOTAL IN =       3.3378E-06

          OUT:                                     OUT:
          ----                                     ----
              STO-SS =           0.0000                STO-SS =           0.0000     STORAGE                          
      CSUB-CGELASTIC =           0.0000        CSUB-CGELASTIC =           0.0000     CSUB                             
        CSUB-ELASTIC =           0.0000          CSUB-ELASTIC =           0.0000     CSUB                             
      CSUB-INELASTIC =           0.0000        CSUB-INELASTIC =           0.0000     CSUB                             
      CSUB-WATERCOMP =           0.0000        CSUB-WATERCOMP =           0.0000     CSUB                             
                 CHD =       8.6541E-03                   CHD =       3.3385E-06     CHD_0                            

           TOTAL OUT =       8.6541E-03             TOTAL OUT =       3.3385E-06

            IN - OUT =      -2.8525E-07              IN - OUT =      -6.9224E-10

 PERCENT DISCREPANCY =          -0.00     PERCENT DISCREPANCY =          -0.02




         TIME SUMMARY AT END OF TIME STEP   94 IN STRESS PERIOD    1
                    SECONDS     MINUTES      HOURS       DAYS        YEARS
                    -----------------------------------------------------------
   TIME STEP LENGTH 3.09367E+06  51561.      859.35      35.806     9.80325E-02
 STRESS PERIOD TIME 6.43050E+07 1.07175E+06  17862.      744.27      2.0377    
         TOTAL TIME 6.43050E+07 1.07175E+06  17862.      744.27      2.0377    


end timestep


start timestep kper="1" kstp="95" mode="normal"



  VOLUME BUDGET FOR ENTIRE MODEL AT END OF TIME STEP   95, STRESS PERIOD   1
  ---------------------------------------------------------------------------------------------------

     CUMULATIVE VOLUME      L**3       RATES FOR THIS TIME STEP      L**3/T          PACKAGE NAME    
     ------------------                 ------------------------                     ----------------

           IN:                                      IN:
           ---                                      ---
              STO-SS =           0.0000                STO-SS =           0.0000     STORAGE                          
      CSUB-CGELASTIC =           0.0000        CSUB-CGELASTIC =           0.0000     CSUB                             
        CSUB-ELASTIC =           0.0000          CSUB-ELASTIC =           0.0000     CSUB                             
      CSUB-INELASTIC =       8.7686E-03        CSUB-INELASTIC =       3.0551E-06     CSUB                             
      CSUB-WATERCOMP =           0.0000        CSUB-WATERCOMP =           0.0000     CSUB                             
                 CHD =           0.0000                   CHD =           0.0000     CHD_0                            

            TOTAL IN =       8.7686E-03              TOTAL IN =       3.0551E-06

          OUT:                                     OUT:
          ----                                     ----
              STO-SS =           0.0000                STO-SS =           0.0000     STORAGE                          
      CSUB-CGELASTIC =           0.0000        CSUB-CGELASTIC =           0.0000     CSUB                             
        CSUB-ELASTIC =           0.0000          CSUB-ELASTIC =           0.0000     CSUB                             
      CSUB-INELASTIC =           0.0000        CSUB-INELASTIC =           0.0000     CSUB                             
      CSUB-WATERCOMP =           0.0000        CSUB-WATERCOMP =           0.0000     CSUB                             
                 CHD =       8.7689E-03                   CHD =       3.0559E-06     CHD_0                            

           TOTAL OUT =       8.7689E-03             TOTAL OUT =       3.0559E-06

            IN - OUT =      -3.1260E-07              IN - OUT =      -7.2755E-10

 PERCENT DISCREPANCY =          -0.00     PERCENT DISCREPANCY =          -0.02




         TIME SUMMARY AT END OF TIME STEP   95 IN STRESS PERIOD    1
                    SECONDS     MINUTES      HOURS       DAYS        YEARS
                    -----------------------------------------------------------
   TIME STEP LENGTH 3.24835E+06  54139.      902.32      37.597     0.10293    
 STRESS PERIOD TIME 6.75533E+07 1.12589E+06  18765.      781.87      2.1406    
         TOTAL TIME 6.75533E+07 1.12589E+06  18765.      781.87      2.1406    


end timestep


start timestep kper="1" kstp="96" mode="normal"



  VOLUME BUDGET FOR ENTIRE MODEL AT END OF TIME STEP   96, STRESS PERIOD   1
  ---------------------------------------------------------------------------------------------------

     CUMULATIVE VOLUME      L**3       RATES FOR THIS TIME STEP      L**3/T          PACKAGE NAME    
     ------------------                 ------------------------                     ----------------

           IN:                                      IN:
           ---                                      ---
              STO-SS =           0.0000                STO-SS =           0.0000     STORAGE                          
      CSUB-CGELASTIC =           0.0000        CSUB-CGELASTIC =           0.0000     CSUB                             
        CSUB-ELASTIC =           0.0000          CSUB-ELASTIC =           0.0000     CSUB                             
      CSUB-INELASTIC =       8.8786E-03        CSUB-INELASTIC =       2.7846E-06     CSUB                             
      CSUB-WATERCOMP =           0.0000        CSUB-WATERCOMP =           0.0000     CSUB                             
                 CHD =           0.0000                   CHD =           0.0000     CHD_0                            

            TOTAL IN =       8.8786E-03              TOTAL IN =       2.7846E-06

          OUT:                                     OUT:
          ----                                     ----
              STO-SS =           0.0000                STO-SS =           0.0000     STORAGE                          
      CSUB-CGELASTIC =           0.0000        CSUB-CGELASTIC =           0.0000     CSUB                             
        CSUB-ELASTIC =           0.0000          CSUB-ELASTIC =           0.0000     CSUB                             
      CSUB-INELASTIC =           0.0000        CSUB-INELASTIC =           0.0000     CSUB                             
      CSUB-WATERCOMP =           0.0000        CSUB-WATERCOMP =           0.0000     CSUB                             
                 CHD =       8.8789E-03                   CHD =       2.7854E-06     CHD_0                            

           TOTAL OUT =       8.8789E-03             TOTAL OUT =       2.7854E-06

            IN - OUT =      -3.4288E-07              IN - OUT =      -7.6699E-10

 PERCENT DISCREPANCY =          -0.00     PERCENT DISCREPANCY =          -0.03




         TIME SUMMARY AT END OF TIME STEP   96 IN STRESS PERIOD    1
                    SECONDS     MINUTES      HOURS       DAYS        YEARS
                    -----------------------------------------------------------
   TIME STEP LENGTH 3.41077E+06  56846.      947.44      39.477     0.10808    
 STRESS PERIOD TIME 7.09641E+07 1.18274E+06  19712.      821.34      2.2487    
         TOTAL TIME 7.09641E+07 1.18274E+06  19712.      821.34      2.2487    


end timestep


start timestep kper="1" kstp="97" mode="normal"



  VOLUME BUDGET FOR ENTIRE MODEL AT END OF TIME STEP   97, STRESS PERIOD   1
  ---------------------------------------------------------------------------------------------------

     CUMULATIVE VOLUME      L**3       RATES FOR THIS TIME STEP      L**3/T          PACKAGE NAME    
     ------------------                 ------------------------                     ----------------

           IN:                                      IN:
           ---                                      ---
              STO-SS =           0.0000                STO-SS =           0.0000     STORAGE                          
      CSUB-CGELASTIC =           0.0000        CSUB-CGELASTIC =           0.0000     CSUB                             
        CSUB-ELASTIC =           0.0000          CSUB-ELASTIC =           0.0000     CSUB                             
      CSUB-INELASTIC =       8.9833E-03        CSUB-INELASTIC =       2.5268E-06     CSUB                             
      CSUB-WATERCOMP =           0.0000        CSUB-WATERCOMP =           0.0000     CSUB                             
                 CHD =           0.0000                   CHD =           0.0000     CHD_0                            

            TOTAL IN =       8.9833E-03              TOTAL IN =       2.5268E-06

          OUT:                                     OUT:
          ----                                     ----
              STO-SS =           0.0000                STO-SS =           0.0000     STORAGE                          
      CSUB-CGELASTIC =           0.0000        CSUB-CGELASTIC =           0.0000     CSUB                             
        CSUB-ELASTIC =           0.0000          CSUB-ELASTIC =           0.0000     CSUB                             
      CSUB-INELASTIC =           0.0000        CSUB-INELASTIC =           0.0000     CSUB                             
      CSUB-WATERCOMP =           0.0000        CSUB-WATERCOMP =           0.0000     CSUB                             
                 CHD =       8.9837E-03                   CHD =       2.5276E-06     CHD_0                            

           TOTAL OUT =       8.9837E-03             TOTAL OUT =       2.5276E-06

            IN - OUT =      -3.7650E-07              IN - OUT =      -8.1111E-10

 PERCENT DISCREPANCY =          -0.00     PERCENT DISCREPANCY =          -0.03




         TIME SUMMARY AT END OF TIME STEP   97 IN STRESS PERIOD    1
                    SECONDS     MINUTES      HOURS       DAYS        YEARS
                    -----------------------------------------------------------
   TIME STEP LENGTH 3.58131E+06  59688.      994.81      41.450     0.11348    
 STRESS PERIOD TIME 7.45454E+07 1.24242E+06  20707.      862.79      2.3622    
         TOTAL TIME 7.45454E+07 1.24242E+06  20707.      862.79      2.3622    


end timestep


start timestep kper="1" kstp="98" mode="normal"



  VOLUME BUDGET FOR ENTIRE MODEL AT END OF TIME STEP   98, STRESS PERIOD   1
  ---------------------------------------------------------------------------------------------------

     CUMULATIVE VOLUME      L**3       RATES FOR THIS TIME STEP      L**3/T          PACKAGE NAME    
     ------------------                 ------------------------                     ----------------

           IN:                                      IN:
           ---                                      ---
              STO-SS =           0.0000                STO-SS =           0.0000     STORAGE                          
      CSUB-CGELASTIC =           0.0000        CSUB-CGELASTIC =           0.0000     CSUB                             
        CSUB-ELASTIC =           0.0000          CSUB-ELASTIC =           0.0000     CSUB                             
      CSUB-INELASTIC =       9.0826E-03        CSUB-INELASTIC =       2.2824E-06     CSUB                             
      CSUB-WATERCOMP =           0.0000        CSUB-WATERCOMP =           0.0000     CSUB                             
                 CHD =           0.0000                   CHD =           0.0000     CHD_0                            

            TOTAL IN =       9.0826E-03              TOTAL IN =       2.2824E-06

          OUT:                                     OUT:
          ----                                     ----
              STO-SS =           0.0000                STO-SS =           0.0000     STORAGE                          
      CSUB-CGELASTIC =           0.0000        CSUB-CGELASTIC =           0.0000     CSUB                             
        CSUB-ELASTIC =           0.0000          CSUB-ELASTIC =           0.0000     CSUB                             
      CSUB-INELASTIC =           0.0000        CSUB-INELASTIC =           0.0000     CSUB                             
      CSUB-WATERCOMP =           0.0000        CSUB-WATERCOMP =           0.0000     CSUB                             
                 CHD =       9.0830E-03                   CHD =       2.2832E-06     CHD_0                            

           TOTAL OUT =       9.0830E-03             TOTAL OUT =       2.2832E-06

            IN - OUT =      -4.1395E-07              IN - OUT =      -8.6057E-10

 PERCENT DISCREPANCY =          -0.00     PERCENT DISCREPANCY =          -0.04




         TIME SUMMARY AT END OF TIME STEP   98 IN STRESS PERIOD    1
                    SECONDS     MINUTES      HOURS       DAYS        YEARS
                    -----------------------------------------------------------
   TIME STEP LENGTH 3.76037E+06  62673.      1044.5      43.523     0.11916    
 STRESS PERIOD TIME 7.83058E+07 1.30510E+06  21752.      906.32      2.4814    
         TOTAL TIME 7.83058E+07 1.30510E+06  21752.      906.32      2.4814    


end timestep


start timestep kper="1" kstp="99" mode="normal"



  VOLUME BUDGET FOR ENTIRE MODEL AT END OF TIME STEP   99, STRESS PERIOD   1
  ---------------------------------------------------------------------------------------------------

     CUMULATIVE VOLUME      L**3       RATES FOR THIS TIME STEP      L**3/T          PACKAGE NAME    
     ------------------                 ------------------------                     ----------------

           IN:                                      IN:
           ---                                      ---
              STO-SS =           0.0000                STO-SS =           0.0000     STORAGE                          
      CSUB-CGELASTIC =           0.0000        CSUB-CGELASTIC =           0.0000     CSUB                             
        CSUB-ELASTIC =           0.0000          CSUB-ELASTIC =           0.0000     CSUB                             
      CSUB-INELASTIC =       9.1764E-03        CSUB-INELASTIC =       2.0516E-06     CSUB                             
      CSUB-WATERCOMP =           0.0000        CSUB-WATERCOMP =           0.0000     CSUB                             
                 CHD =           0.0000                   CHD =           0.0000     CHD_0                            

            TOTAL IN =       9.1764E-03              TOTAL IN =       2.0516E-06

          OUT:                                     OUT:
          ----                                     ----
              STO-SS =           0.0000                STO-SS =           0.0000     STORAGE                          
      CSUB-CGELASTIC =           0.0000        CSUB-CGELASTIC =           0.0000     CSUB                             
        CSUB-ELASTIC =           0.0000          CSUB-ELASTIC =           0.0000     CSUB                             
      CSUB-INELASTIC =           0.0000        CSUB-INELASTIC =           0.0000     CSUB                             
      CSUB-WATERCOMP =           0.0000        CSUB-WATERCOMP =           0.0000     CSUB                             
                 CHD =       9.1768E-03                   CHD =       2.0525E-06     CHD_0                            

           TOTAL OUT =       9.1768E-03             TOTAL OUT =       2.0525E-06

            IN - OUT =      -4.5582E-07              IN - OUT =      -9.1617E-10

 PERCENT DISCREPANCY =          -0.00     PERCENT DISCREPANCY =          -0.04




         TIME SUMMARY AT END OF TIME STEP   99 IN STRESS PERIOD    1
                    SECONDS     MINUTES      HOURS       DAYS        YEARS
                    -----------------------------------------------------------
   TIME STEP LENGTH 3.94839E+06  65807.      1096.8      45.699     0.12512    
 STRESS PERIOD TIME 8.22542E+07 1.37090E+06  22848.      952.02      2.6065    
         TOTAL TIME 8.22542E+07 1.37090E+06  22848.      952.02      2.6065    


end timestep


start timestep kper="1" kstp="100" mode="normal"



  VOLUME BUDGET FOR ENTIRE MODEL AT END OF TIME STEP  100, STRESS PERIOD   1
  ---------------------------------------------------------------------------------------------------

     CUMULATIVE VOLUME      L**3       RATES FOR THIS TIME STEP      L**3/T          PACKAGE NAME    
     ------------------                 ------------------------                     ----------------

           IN:                                      IN:
           ---                                      ---
              STO-SS =           0.0000                STO-SS =           0.0000     STORAGE                          
      CSUB-CGELASTIC =           0.0000        CSUB-CGELASTIC =           0.0000     CSUB                             
        CSUB-ELASTIC =           0.0000          CSUB-ELASTIC =           0.0000     CSUB                             
      CSUB-INELASTIC =       9.2644E-03        CSUB-INELASTIC =       1.8349E-06     CSUB                             
      CSUB-WATERCOMP =           0.0000        CSUB-WATERCOMP =           0.0000     CSUB                             
                 CHD =           0.0000                   CHD =           0.0000     CHD_0                            

            TOTAL IN =       9.2644E-03              TOTAL IN =       1.8349E-06

          OUT:                                     OUT:
          ----                                     ----
              STO-SS =           0.0000                STO-SS =           0.0000     STORAGE                          
      CSUB-CGELASTIC =           0.0000        CSUB-CGELASTIC =           0.0000     CSUB                             
        CSUB-ELASTIC =           0.0000          CSUB-ELASTIC =           0.0000     CSUB                             
      CSUB-INELASTIC =           0.0000        CSUB-INELASTIC =           0.0000     CSUB                             
      CSUB-WATERCOMP =           0.0000        CSUB-WATERCOMP =           0.0000     CSUB                             
                 CHD =       9.2649E-03                   CHD =       1.8359E-06     CHD_0                            

           TOTAL OUT =       9.2649E-03             TOTAL OUT =       1.8359E-06

            IN - OUT =      -5.0279E-07              IN - OUT =      -9.7886E-10

 PERCENT DISCREPANCY =          -0.01     PERCENT DISCREPANCY =          -0.05




         TIME SUMMARY AT END OF TIME STEP  100 IN STRESS PERIOD    1
                    SECONDS     MINUTES      HOURS       DAYS        YEARS
                    -----------------------------------------------------------
   TIME STEP LENGTH 4.14581E+06  69097.      1151.6      47.984     0.13137    
 STRESS PERIOD TIME 8.64000E+07 1.44000E+06  24000.      1000.0      2.7379    
         TOTAL TIME 8.64000E+07 1.44000E+06  24000.      1000.0      2.7379    


end timestep


 PERCENT COMPACTION WAS LESS THAN 1 PERCENT IN ALL INTERBEDS

 COARSE-GRAINED STORAGE PERCENT COMPACTION WAS LESS THAN 1 PERCENT IN ALL CELLS
